<nodes>

<node id="center" x="0" y="0" type="traffic_light"/>
<node id="n1" x="0" y="100"/>
<node id="n2" x="0" y="-100"/>
<node id="n3" x="100" y="0"/>
<node id="n4" x="-100" y="0"/>

</nodes>