<edges>

<edge id="north_in" from="n1" to="center" numLanes="1" speed="13"/>
<edge id="south_in" from="n2" to="center" numLanes="1" speed="13"/>
<edge id="east_in" from="n3" to="center" numLanes="1" speed="13"/>
<edge id="west_in" from="n4" to="center" numLanes="1" speed="13"/>

<edge id="north_out" from="center" to="n1" numLanes="1" speed="13"/>
<edge id="south_out" from="center" to="n2" numLanes="1" speed="13"/>
<edge id="east_out" from="center" to="n3" numLanes="1" speed="13"/>
<edge id="west_out" from="center" to="n4" numLanes="1" speed="13"/>

</edges>