<edges>

<edge id="north_in" from="n1" to="center" numLanes="1" speed="13"/>  <!-- Define edge from north node to center -->
<edge id="south_in" from="n2" to="center" numLanes="1" speed="13"/>  <!-- Define edge from south node to center -->
<edge id="east_in" from="n3" to="center" numLanes="1" speed="13"/>  <!-- Define edge from east node to center -->
<edge id="west_in" from="n4" to="center" numLanes="1" speed="13"/>  <!-- Define edge from west node to center -->

<edge id="north_out" from="center" to="n1" numLanes="1" speed="13"/> <!-- Define edge from center to north node -->
<edge id="south_out" from="center" to="n2" numLanes="1" speed="13"/> <!-- Define edge from center to south node -->
<edge id="east_out" from="center" to="n3" numLanes="1" speed="13"/> <!-- Define edge from center to east node -->
<edge id="west_out" from="center" to="n4" numLanes="1" speed="13"/> <!-- Define edge from center to west node -->

</edges>