<nodes>

<node id="center" x="0" y="0" type="traffic_light"/>    <!-- Define central node with traffic light -->
<node id="n1" x="0" y="100"/>    <!-- Define node n1 -->
<node id="n2" x="0" y="-100"/>   <!-- Define node n2 -->
<node id="n3" x="100" y="0"/>    <!-- Define node n3 -->
<node id="n4" x="-100" y="0"/>   <!-- Define node n4 -->

</nodes>