<configuration>

<input>
<net-file value="traffic.net.xml"/>
<route-files value="routes.rou.xml"/>
</input>

<time>
<begin value="0"/>
<end value="300"/>
</time>

</configuration>